
 OpenBabel05142418403D

 12 12  0  0  0  0  0  0  0  0999 V2000
    0.0000    1.3873    0.0000 C   0  0  0  0  0  0  0  0  0  0  0  0
    0.0000    2.4702    0.0000 H   0  0  0  0  0  0  0  0  0  0  0  0
    1.2014    0.6936    0.0000 C   0  0  0  0  0  0  0  0  0  0  0  0
    2.1392    1.2351    0.0000 H   0  0  0  0  0  0  0  0  0  0  0  0
    1.2014   -0.6936    0.0000 C   0  0  0  0  0  0  0  0  0  0  0  0
    2.1392   -1.2351    0.0000 H   0  0  0  0  0  0  0  0  0  0  0  0
    0.0000   -1.3873    0.0000 C   0  0  0  0  0  0  0  0  0  0  0  0
    0.0000   -2.4702    0.0000 H   0  0  0  0  0  0  0  0  0  0  0  0
   -1.2014   -0.6936    0.0000 C   0  0  0  0  0  0  0  0  0  0  0  0
   -2.1392   -1.2351    0.0000 H   0  0  0  0  0  0  0  0  0  0  0  0
   -1.2014    0.6936    0.0000 C   0  0  0  0  0  0  0  0  0  0  0  0
   -2.1392    1.2351    0.0000 H   0  0  0  0  0  0  0  0  0  0  0  0
  1  2  1  0  0  0  0
  1  3  2  0  0  0  0
  1 11  1  0  0  0  0
  3  4  1  0  0  0  0
  3  5  1  0  0  0  0
  5  6  1  0  0  0  0
  5  7  2  0  0  0  0
  7  8  1  0  0  0  0
  7  9  1  0  0  0  0
  9 10  1  0  0  0  0
  9 11  2  0  0  0  0
 11 12  1  0  0  0  0
M  END
