13

 C     0.662673     1.069483    -0.047112
 C    -0.662673     1.069483    -0.047112
 C     1.227420    -0.317713     0.103939
 C    -1.227420    -0.317714     0.103939
 C     0.000000    -1.219450    -0.136549
 H     1.283131     1.954696    -0.104962
 H    -1.283132     1.954696    -0.104962
 H     2.039926    -0.524119    -0.595735
 H    -2.039926    -0.524120    -0.595735
 H     1.640437    -0.450470     1.109995
 H    -1.640436    -0.450471     1.109995
 H     0.000000    -1.556298    -1.174733
 H     0.000000    -2.108454     0.493499
