
 OpenBabel05142418403D

  6  5  0  0  0  0  0  0  0  0999 V2000
    0.0000    0.0000    0.6863 C   0  0  0  0  0  0  0  0  0  0  0  0
    0.0000    0.0000   -0.6863 C   0  0  0  0  0  0  0  0  0  0  0  0
    0.0000    0.0000    1.8862 C   0  0  0  0  0  0  0  0  0  0  0  0
    0.0000    0.0000   -1.8862 C   0  0  0  0  0  0  0  0  0  0  0  0
    0.0000    0.0000    2.9499 H   0  0  0  0  0  0  0  0  0  0  0  0
    0.0000    0.0000   -2.9499 H   0  0  0  0  0  0  0  0  0  0  0  0
  1  3  3  0  0  0  0
  2  1  1  0  0  0  0
  3  5  1  0  0  0  0
  4  2  3  0  0  0  0
  6  4  1  0  0  0  0
M  END
