12

 C    -0.346302     0.401758     0.000000
 C    -0.346302    -0.895543     0.751971
 C    -0.346302    -0.895543    -0.751971
 H    -1.250597    -1.198992     1.261979
 H     0.568869    -1.181482     1.255068
 H    -1.250597    -1.198992    -1.261979
 H     0.568869    -1.181482    -1.255068
 H    -1.286403     0.941659     0.000000
 C     0.879734     1.275673     0.000000
 H     1.787550     0.667680     0.000000
 H     0.908674     1.916769     0.883766
 H     0.908674     1.916769    -0.883766
