
 OpenBabel05142418403D

 14 14  0  0  0  0  0  0  0  0999 V2000
    0.0000    0.5854    0.0000 C   0  0  0  0  0  0  0  0  0  0  0  0
   -1.2044   -0.1196    0.0000 C   0  0  0  0  0  0  0  0  0  0  0  0
    1.2044   -0.1196    0.0000 C   0  0  0  0  0  0  0  0  0  0  0  0
   -1.2006   -1.5036    0.0000 C   0  0  0  0  0  0  0  0  0  0  0  0
    1.2006   -1.5036    0.0000 C   0  0  0  0  0  0  0  0  0  0  0  0
    0.0000   -2.1985    0.0000 C   0  0  0  0  0  0  0  0  0  0  0  0
   -2.1380    0.4275    0.0000 H   0  0  0  0  0  0  0  0  0  0  0  0
    2.1380    0.4275    0.0000 H   0  0  0  0  0  0  0  0  0  0  0  0
   -2.1395   -2.0423    0.0000 H   0  0  0  0  0  0  0  0  0  0  0  0
    2.1395   -2.0423    0.0000 H   0  0  0  0  0  0  0  0  0  0  0  0
    0.0000   -3.2811    0.0000 H   0  0  0  0  0  0  0  0  0  0  0  0
    0.0000    2.0162    0.0000 C   0  0  0  0  0  0  0  0  0  0  0  0
    0.0000    3.2151    0.0000 C   0  0  0  0  0  0  0  0  0  0  0  0
   -0.0000    4.2785    0.0000 H   0  0  0  0  0  0  0  0  0  0  0  0
  1  2  2  0  0  0  0
  1  3  1  0  0  0  0
  1 12  1  0  0  0  0
  2  4  1  0  0  0  0
  2  7  1  0  0  0  0
  3  5  2  0  0  0  0
  3  8  1  0  0  0  0
  4  6  2  0  0  0  0
  4  9  1  0  0  0  0
  5  6  1  0  0  0  0
  5 10  1  0  0  0  0
  6 11  1  0  0  0  0
 12 13  3  0  0  0  0
 13 14  1  0  0  0  0
M  END
