
 OpenBabel05142418403D

 17 16  0  0  0  0  0  0  0  0999 V2000
    0.0000    2.5409    0.3237 C   0  0  0  0  0  0  0  0  0  0  0  0
    0.0000    1.2744   -0.5220 C   0  0  0  0  0  0  0  0  0  0  0  0
    0.0000    0.0000    0.3131 C   0  0  0  0  0  0  0  0  0  0  0  0
    0.0000    3.4375   -0.2982 H   0  0  0  0  0  0  0  0  0  0  0  0
    0.8815    2.5812    0.9679 H   0  0  0  0  0  0  0  0  0  0  0  0
   -0.8815    2.5812    0.9679 H   0  0  0  0  0  0  0  0  0  0  0  0
    0.8751    1.2727   -1.1797 H   0  0  0  0  0  0  0  0  0  0  0  0
   -0.8751    1.2727   -1.1797 H   0  0  0  0  0  0  0  0  0  0  0  0
    0.0000   -1.2744   -0.5220 C   0  0  0  0  0  0  0  0  0  0  0  0
    0.8755    0.0000    0.9725 H   0  0  0  0  0  0  0  0  0  0  0  0
   -0.8755    0.0000    0.9725 H   0  0  0  0  0  0  0  0  0  0  0  0
    0.0000   -2.5409    0.3237 C   0  0  0  0  0  0  0  0  0  0  0  0
    0.8751   -1.2727   -1.1797 H   0  0  0  0  0  0  0  0  0  0  0  0
   -0.8751   -1.2727   -1.1797 H   0  0  0  0  0  0  0  0  0  0  0  0
    0.0000   -3.4375   -0.2982 H   0  0  0  0  0  0  0  0  0  0  0  0
    0.8815   -2.5812    0.9679 H   0  0  0  0  0  0  0  0  0  0  0  0
   -0.8815   -2.5812    0.9679 H   0  0  0  0  0  0  0  0  0  0  0  0
  1  5  1  0  0  0  0
  1  6  1  0  0  0  0
  2  3  1  0  0  0  0
  2  1  1  0  0  0  0
  3 10  1  0  0  0  0
  3 11  1  0  0  0  0
  4  1  1  0  0  0  0
  7  2  1  0  0  0  0
  8  2  1  0  0  0  0
  9  3  1  0  0  0  0
  9 12  1  0  0  0  0
 12 16  1  0  0  0  0
 12 17  1  0  0  0  0
 13  9  1  0  0  0  0
 14  9  1  0  0  0  0
 15 12  1  0  0  0  0
M  END
