9

 C     0.000000     0.472225     0.000000
 C     1.284138     0.150778     0.000000
 H     2.057745     0.908317     0.000000
 H     1.608437    -0.884571     0.000000
 H    -0.276526     1.523475     0.000000
 C    -1.131574    -0.504372     0.000000
 H    -0.770125    -1.533448     0.000000
 H    -1.767455    -0.362780     0.877698
 H    -1.767455    -0.362780    -0.877698
