
 OpenBabel05142418403D

 17 16  0  0  0  0  0  0  0  0999 V2000
    2.0807   -0.0365   -0.1044 C   0  0  0  0  0  0  0  0  0  0  0  0
    0.7516   -0.6780    0.2737 C   0  0  0  0  0  0  0  0  0  0  0  0
   -0.4811   -0.0028   -0.3334 C   0  0  0  0  0  0  0  0  0  0  0  0
    2.9190   -0.6186    0.2816 H   0  0  0  0  0  0  0  0  0  0  0  0
    2.1726    0.9742    0.2962 H   0  0  0  0  0  0  0  0  0  0  0  0
    2.1898    0.0246   -1.1902 H   0  0  0  0  0  0  0  0  0  0  0  0
    0.6452   -0.6870    1.3647 H   0  0  0  0  0  0  0  0  0  0  0  0
    0.7602   -1.7265   -0.0393 H   0  0  0  0  0  0  0  0  0  0  0  0
   -0.3558   -0.0039   -1.4229 H   0  0  0  0  0  0  0  0  0  0  0  0
   -0.6297    1.4467    0.1214 C   0  0  0  0  0  0  0  0  0  0  0  0
   -1.7408   -0.7984   -0.0036 C   0  0  0  0  0  0  0  0  0  0  0  0
   -0.7086    1.5001    1.2115 H   0  0  0  0  0  0  0  0  0  0  0  0
   -1.5312    1.8965   -0.2996 H   0  0  0  0  0  0  0  0  0  0  0  0
    0.2185    2.0609   -0.1837 H   0  0  0  0  0  0  0  0  0  0  0  0
   -1.9082   -0.8227    1.0772 H   0  0  0  0  0  0  0  0  0  0  0  0
   -2.6238   -0.3532   -0.4665 H   0  0  0  0  0  0  0  0  0  0  0  0
   -1.6615   -1.8305   -0.3516 H   0  0  0  0  0  0  0  0  0  0  0  0
  1  2  1  0  0  0  0
  1  4  1  0  0  0  0
  1  5  1  0  0  0  0
  2  7  1  0  0  0  0
  3 11  1  0  0  0  0
  3 10  1  0  0  0  0
  3  2  1  0  0  0  0
  6  1  1  0  0  0  0
  8  2  1  0  0  0  0
  9  3  1  0  0  0  0
 10 12  1  0  0  0  0
 11 15  1  0  0  0  0
 13 10  1  0  0  0  0
 14 10  1  0  0  0  0
 16 11  1  0  0  0  0
 17 11  1  0  0  0  0
M  END
