9

 C     0.000000     0.865975     0.000000
 C    -0.749956    -0.432987     0.000000
 C     0.749956    -0.432987     0.000000
 H     0.000000     1.451817     0.909150
 H     0.000000     1.451817    -0.909150
 H    -1.257310    -0.725909     0.909150
 H    -1.257310    -0.725909    -0.909150
 H     1.257310    -0.725909     0.909150
 H     1.257310    -0.725909    -0.909150
