
 OpenBabel05142418403D

 13 12  0  0  0  0  0  0  0  0999 V2000
   -0.5869    1.7227    0.0000 C   0  0  0  0  0  0  0  0  0  0  0  0
    0.0000    0.5261    0.0000 C   0  0  0  0  0  0  0  0  0  0  0  0
   -0.8244   -0.6875    0.0000 C   0  0  0  0  0  0  0  0  0  0  0  0
   -0.0095    2.6389    0.0000 H   0  0  0  0  0  0  0  0  0  0  0  0
   -1.6661    1.8198    0.0000 H   0  0  0  0  0  0  0  0  0  0  0  0
    1.4932    0.3762    0.0000 C   0  0  0  0  0  0  0  0  0  0  0  0
    1.9839    1.3484    0.0000 H   0  0  0  0  0  0  0  0  0  0  0  0
    1.8288   -0.1787    0.8795 H   0  0  0  0  0  0  0  0  0  0  0  0
    1.8288   -0.1787   -0.8795 H   0  0  0  0  0  0  0  0  0  0  0  0
   -0.3675   -1.9354    0.0000 C   0  0  0  0  0  0  0  0  0  0  0  0
   -1.8978   -0.5215    0.0000 H   0  0  0  0  0  0  0  0  0  0  0  0
   -1.0464   -2.7781    0.0000 H   0  0  0  0  0  0  0  0  0  0  0  0
    0.6917   -2.1625    0.0000 H   0  0  0  0  0  0  0  0  0  0  0  0
  1  2  2  0  0  0  0
  1  4  1  0  0  0  0
  1  5  1  0  0  0  0
  2  3  1  0  0  0  0
  2  6  1  0  0  0  0
  3 10  2  0  0  0  0
  3 11  1  0  0  0  0
  6  7  1  0  0  0  0
  6  8  1  0  0  0  0
  9  6  1  0  0  0  0
 10 12  1  0  0  0  0
 10 13  1  0  0  0  0
M  END
