
 OpenBabel05142418403D

  6  5  0  0  0  0  0  0  0  0999 V2000
    0.0000    0.0000    0.6609 C   0  0  0  0  0  0  0  0  0  0  0  0
    0.0000    0.0000   -0.6609 C   0  0  0  0  0  0  0  0  0  0  0  0
    0.0000    0.9226    1.2293 H   0  0  0  0  0  0  0  0  0  0  0  0
    0.0000   -0.9226    1.2293 H   0  0  0  0  0  0  0  0  0  0  0  0
    0.0000    0.9226   -1.2293 H   0  0  0  0  0  0  0  0  0  0  0  0
    0.0000   -0.9226   -1.2293 H   0  0  0  0  0  0  0  0  0  0  0  0
  1  3  1  0  0  0  0
  1  4  1  0  0  0  0
  2  1  2  0  0  0  0
  5  2  1  0  0  0  0
  6  2  1  0  0  0  0
M  END
