
 OpenBabel05142418403D

 11 10  0  0  0  0  0  0  0  0999 V2000
    0.0000    0.0000    0.5856 C   0  0  0  0  0  0  0  0  0  0  0  0
    0.0000    1.2677   -0.2591 C   0  0  0  0  0  0  0  0  0  0  0  0
    0.0000   -1.2677   -0.2591 C   0  0  0  0  0  0  0  0  0  0  0  0
    0.8745    0.0000    1.2420 H   0  0  0  0  0  0  0  0  0  0  0  0
   -0.8745    0.0000    1.2420 H   0  0  0  0  0  0  0  0  0  0  0  0
    0.0000    2.1643    0.3631 H   0  0  0  0  0  0  0  0  0  0  0  0
    0.8815    1.3077   -0.9036 H   0  0  0  0  0  0  0  0  0  0  0  0
   -0.8815    1.3077   -0.9036 H   0  0  0  0  0  0  0  0  0  0  0  0
    0.0000   -2.1643    0.3631 H   0  0  0  0  0  0  0  0  0  0  0  0
   -0.8815   -1.3077   -0.9036 H   0  0  0  0  0  0  0  0  0  0  0  0
    0.8815   -1.3077   -0.9036 H   0  0  0  0  0  0  0  0  0  0  0  0
  1  4  1  0  0  0  0
  1  5  1  0  0  0  0
  2  6  1  0  0  0  0
  2  1  1  0  0  0  0
  3  9  1  0  0  0  0
  3  1  1  0  0  0  0
  7  2  1  0  0  0  0
  8  2  1  0  0  0  0
 10  3  1  0  0  0  0
 11  3  1  0  0  0  0
M  END
