
 OpenBabel05142418403D

  8  7  0  0  0  0  0  0  0  0999 V2000
    0.0000    0.0000    0.7614 C   0  0  0  0  0  0  0  0  0  0  0  0
    0.0000    0.0000   -0.7614 C   0  0  0  0  0  0  0  0  0  0  0  0
    0.0000    1.0171    1.1572 H   0  0  0  0  0  0  0  0  0  0  0  0
   -0.8808   -0.5086    1.1572 H   0  0  0  0  0  0  0  0  0  0  0  0
    0.8808   -0.5086    1.1572 H   0  0  0  0  0  0  0  0  0  0  0  0
    0.0000   -1.0171   -1.1572 H   0  0  0  0  0  0  0  0  0  0  0  0
   -0.8808    0.5086   -1.1572 H   0  0  0  0  0  0  0  0  0  0  0  0
    0.8808    0.5086   -1.1572 H   0  0  0  0  0  0  0  0  0  0  0  0
  1  3  1  0  0  0  0
  1  4  1  0  0  0  0
  1  5  1  0  0  0  0
  2  1  1  0  0  0  0
  6  2  1  0  0  0  0
  7  2  1  0  0  0  0
  8  2  1  0  0  0  0
M  END
