
 OpenBabel05142418403D

 16 16  0  0  0  0  0  0  0  0999 V2000
   -0.5090    0.2203    0.0006 C   0  0  0  0  0  0  0  0  0  0  0  0
   -0.0098   -1.0834    0.0011 C   0  0  0  0  0  0  0  0  0  0  0  0
    0.4046    1.2731   -0.0003 C   0  0  0  0  0  0  0  0  0  0  0  0
    1.3524   -1.3207    0.0005 C   0  0  0  0  0  0  0  0  0  0  0  0
    1.7706    1.0384   -0.0009 C   0  0  0  0  0  0  0  0  0  0  0  0
    2.2500   -0.2609   -0.0005 C   0  0  0  0  0  0  0  0  0  0  0  0
   -0.6915   -1.9243    0.0022 H   0  0  0  0  0  0  0  0  0  0  0  0
    0.0358    2.2924   -0.0006 H   0  0  0  0  0  0  0  0  0  0  0  0
    1.7188   -2.3397    0.0010 H   0  0  0  0  0  0  0  0  0  0  0  0
    2.4603    1.8730   -0.0016 H   0  0  0  0  0  0  0  0  0  0  0  0
    3.3159   -0.4500   -0.0009 H   0  0  0  0  0  0  0  0  0  0  0  0
   -1.9479    0.5285    0.0010 C   0  0  0  0  0  0  0  0  0  0  0  0
   -2.9556   -0.3357   -0.0014 C   0  0  0  0  0  0  0  0  0  0  0  0
   -2.1830    1.5892    0.0033 H   0  0  0  0  0  0  0  0  0  0  0  0
   -3.9806    0.0107   -0.0009 H   0  0  0  0  0  0  0  0  0  0  0  0
   -2.8073   -1.4087   -0.0042 H   0  0  0  0  0  0  0  0  0  0  0  0
  1 12  1  0  0  0  0
  1  2  1  0  0  0  0
  2  7  1  0  0  0  0
  3  1  2  0  0  0  0
  4  9  1  0  0  0  0
  4  2  2  0  0  0  0
  5  6  2  0  0  0  0
  5  3  1  0  0  0  0
  6  4  1  0  0  0  0
  8  3  1  0  0  0  0
 10  5  1  0  0  0  0
 11  6  1  0  0  0  0
 12 14  1  0  0  0  0
 13 15  1  0  0  0  0
 13 12  2  0  0  0  0
 16 13  1  0  0  0  0
M  END
