
 OpenBabel05142418403D

 12 11  0  0  0  0  0  0  0  0999 V2000
    0.0000    0.0000    1.4521 C   0  0  0  0  0  0  0  0  0  0  0  0
    0.0000    0.0000    0.1251 C   0  0  0  0  0  0  0  0  0  0  0  0
    0.0000    0.9241    2.0180 H   0  0  0  0  0  0  0  0  0  0  0  0
    0.0000   -0.9241    2.0180 H   0  0  0  0  0  0  0  0  0  0  0  0
    0.0000   -1.2689   -0.6762 C   0  0  0  0  0  0  0  0  0  0  0  0
    0.0000   -2.1518   -0.0377 H   0  0  0  0  0  0  0  0  0  0  0  0
   -0.8777   -1.3130   -1.3274 H   0  0  0  0  0  0  0  0  0  0  0  0
    0.8777   -1.3130   -1.3274 H   0  0  0  0  0  0  0  0  0  0  0  0
    0.0000    1.2689   -0.6762 C   0  0  0  0  0  0  0  0  0  0  0  0
    0.0000    2.1518   -0.0377 H   0  0  0  0  0  0  0  0  0  0  0  0
    0.8777    1.3130   -1.3274 H   0  0  0  0  0  0  0  0  0  0  0  0
   -0.8777    1.3130   -1.3274 H   0  0  0  0  0  0  0  0  0  0  0  0
  1  3  1  0  0  0  0
  1  4  1  0  0  0  0
  2  1  2  0  0  0  0
  5  6  1  0  0  0  0
  5  2  1  0  0  0  0
  7  5  1  0  0  0  0
  8  5  1  0  0  0  0
  9 10  1  0  0  0  0
  9  2  1  0  0  0  0
 11  9  1  0  0  0  0
 12  9  1  0  0  0  0
M  END
