
 OpenBabel05142418403D

 18 18  0  0  0  0  0  0  0  0999 V2000
    1.2614    0.7283    0.2296 C   0  0  0  0  0  0  0  0  0  0  0  0
    1.3142    0.7587    1.3239 H   0  0  0  0  0  0  0  0  0  0  0  0
    2.1513    1.2421   -0.1415 H   0  0  0  0  0  0  0  0  0  0  0  0
   -1.2614    0.7283    0.2296 C   0  0  0  0  0  0  0  0  0  0  0  0
   -1.3142    0.7587    1.3239 H   0  0  0  0  0  0  0  0  0  0  0  0
   -2.1513    1.2421   -0.1415 H   0  0  0  0  0  0  0  0  0  0  0  0
    0.0000   -1.4565    0.2296 C   0  0  0  0  0  0  0  0  0  0  0  0
    0.0000   -1.5175    1.3239 H   0  0  0  0  0  0  0  0  0  0  0  0
    0.0000   -2.4841   -0.1415 H   0  0  0  0  0  0  0  0  0  0  0  0
    0.0000    1.4565   -0.2296 C   0  0  0  0  0  0  0  0  0  0  0  0
    0.0000    1.5175   -1.3239 H   0  0  0  0  0  0  0  0  0  0  0  0
    0.0000    2.4841    0.1415 H   0  0  0  0  0  0  0  0  0  0  0  0
   -1.2614   -0.7283   -0.2296 C   0  0  0  0  0  0  0  0  0  0  0  0
   -1.3142   -0.7587   -1.3239 H   0  0  0  0  0  0  0  0  0  0  0  0
   -2.1513   -1.2421    0.1415 H   0  0  0  0  0  0  0  0  0  0  0  0
    1.2614   -0.7283   -0.2296 C   0  0  0  0  0  0  0  0  0  0  0  0
    1.3142   -0.7587   -1.3239 H   0  0  0  0  0  0  0  0  0  0  0  0
    2.1513   -1.2421    0.1415 H   0  0  0  0  0  0  0  0  0  0  0  0
  1  2  1  0  0  0  0
  3  1  1  0  0  0  0
  4  5  1  0  0  0  0
  6  4  1  0  0  0  0
  7  8  1  0  0  0  0
  9  7  1  0  0  0  0
 10 12  1  0  0  0  0
 10  1  1  0  0  0  0
 10  4  1  0  0  0  0
 11 10  1  0  0  0  0
 13 15  1  0  0  0  0
 13  4  1  0  0  0  0
 13  7  1  0  0  0  0
 14 13  1  0  0  0  0
 16 18  1  0  0  0  0
 16  1  1  0  0  0  0
 16  7  1  0  0  0  0
 17 16  1  0  0  0  0
M  END
