13

 C    -0.586855     1.722664     0.000000
 C     0.000000     0.526120     0.000000
 C    -0.824371    -0.687482     0.000000
 H    -0.009464     2.638938     0.000000
 H    -1.666104     1.819808     0.000000
 C     1.493159     0.376192     0.000000
 H     1.983918     1.348400     0.000000
 H     1.828757    -0.178726     0.879459
 H     1.828757    -0.178726    -0.879459
 C    -0.367489    -1.935423     0.000000
 H    -1.897843    -0.521525     0.000000
 H    -1.046425    -2.778106     0.000000
 H     0.691738    -2.162487     0.000000
