
 OpenBabel05142418403D

  7  7  0  0  0  0  0  0  0  0999 V2000
    0.0000    0.0000    0.8603 C   0  0  0  0  0  0  0  0  0  0  0  0
    0.0000    0.6421   -0.4990 C   0  0  0  0  0  0  0  0  0  0  0  0
    0.0000   -0.6421   -0.4990 C   0  0  0  0  0  0  0  0  0  0  0  0
   -0.9122    0.0000    1.4547 H   0  0  0  0  0  0  0  0  0  0  0  0
    0.9122    0.0000    1.4547 H   0  0  0  0  0  0  0  0  0  0  0  0
    0.0000    1.5701   -1.0413 H   0  0  0  0  0  0  0  0  0  0  0  0
    0.0000   -1.5701   -1.0413 H   0  0  0  0  0  0  0  0  0  0  0  0
  1  4  1  0  0  0  0
  1  5  1  0  0  0  0
  2  3  2  0  0  0  0
  2  1  1  0  0  0  0
  3  1  1  0  0  0  0
  6  2  1  0  0  0  0
  7  3  1  0  0  0  0
M  END
