
 OpenBabel05142418403D

  5  4  0  0  0  0  0  0  0  0999 V2000
    0.0000    0.0000    0.0000 C   0  0  0  0  0  0  0  0  0  0  0  0
    0.6287    0.6287    0.6287 H   0  0  0  0  0  0  0  0  0  0  0  0
   -0.6287   -0.6287    0.6287 H   0  0  0  0  0  0  0  0  0  0  0  0
   -0.6287    0.6287   -0.6287 H   0  0  0  0  0  0  0  0  0  0  0  0
    0.6287   -0.6287   -0.6287 H   0  0  0  0  0  0  0  0  0  0  0  0
  1  2  1  0  0  0  0
  1  3  1  0  0  0  0
  4  1  1  0  0  0  0
  5  1  1  0  0  0  0
M  END
