12

 C    -1.848206     0.017115    -0.276914
 C    -0.717611    -0.293700     0.337592
 C     0.537615     0.521640     0.304654
 H    -1.942568     0.927372    -0.859804
 H    -2.720157    -0.622333    -0.219558
 H    -0.665533    -1.218683     0.908399
 H     0.791982     0.825426     1.325395
 H     0.363006     1.438869    -0.263108
 C     1.715888    -0.247351    -0.291924
 H     2.625183     0.355443    -0.276589
 H     1.510601    -0.529500    -1.325982
 H     1.911369    -1.162821     0.270796
