
 OpenBabel05142418403D

 12 11  0  0  0  0  0  0  0  0999 V2000
   -0.3233    0.5784    0.0000 C   0  0  0  0  0  0  0  0  0  0  0  0
    0.3233   -0.5784    0.0000 C   0  0  0  0  0  0  0  0  0  0  0  0
   -1.4115    0.5667    0.0000 H   0  0  0  0  0  0  0  0  0  0  0  0
    1.4115   -0.5667    0.0000 H   0  0  0  0  0  0  0  0  0  0  0  0
    0.3233    1.9267    0.0000 C   0  0  0  0  0  0  0  0  0  0  0  0
   -0.3233   -1.9267    0.0000 C   0  0  0  0  0  0  0  0  0  0  0  0
    1.4113    1.8462    0.0000 H   0  0  0  0  0  0  0  0  0  0  0  0
    0.0242    2.5055    0.8779 H   0  0  0  0  0  0  0  0  0  0  0  0
    0.0242    2.5055   -0.8779 H   0  0  0  0  0  0  0  0  0  0  0  0
   -1.4113   -1.8462    0.0000 H   0  0  0  0  0  0  0  0  0  0  0  0
   -0.0242   -2.5055    0.8779 H   0  0  0  0  0  0  0  0  0  0  0  0
   -0.0242   -2.5055   -0.8779 H   0  0  0  0  0  0  0  0  0  0  0  0
  1  2  2  0  0  0  0
  1  3  1  0  0  0  0
  1  5  1  0  0  0  0
  2  4  1  0  0  0  0
  2  6  1  0  0  0  0
  5  7  1  0  0  0  0
  5  8  1  0  0  0  0
  6 10  1  0  0  0  0
  6 11  1  0  0  0  0
  9  5  1  0  0  0  0
 12  6  1  0  0  0  0
M  END
