
 OpenBabel05142418403D

  8  7  0  0  0  0  0  0  0  0999 V2000
   -0.1128   -1.6858    0.0000 C   0  0  0  0  0  0  0  0  0  0  0  0
    0.5866   -0.5560    0.0000 C   0  0  0  0  0  0  0  0  0  0  0  0
    0.0000    0.7432    0.0000 C   0  0  0  0  0  0  0  0  0  0  0  0
   -0.4691    1.8471    0.0000 C   0  0  0  0  0  0  0  0  0  0  0  0
    0.3870   -2.6454    0.0000 H   0  0  0  0  0  0  0  0  0  0  0  0
   -1.1952   -1.6810    0.0000 H   0  0  0  0  0  0  0  0  0  0  0  0
    1.6712   -0.5882    0.0000 H   0  0  0  0  0  0  0  0  0  0  0  0
   -0.8914    2.8231    0.0000 H   0  0  0  0  0  0  0  0  0  0  0  0
  1  2  2  0  0  0  0
  1  5  1  0  0  0  0
  1  6  1  0  0  0  0
  2  3  1  0  0  0  0
  2  7  1  0  0  0  0
  3  4  3  0  0  0  0
  4  8  1  0  0  0  0
M  END
