
 OpenBabel05142418403D

 12 11  0  0  0  0  0  0  0  0999 V2000
   -1.8482    0.0171   -0.2769 C   0  0  0  0  0  0  0  0  0  0  0  0
   -0.7176   -0.2937    0.3376 C   0  0  0  0  0  0  0  0  0  0  0  0
    0.5376    0.5216    0.3047 C   0  0  0  0  0  0  0  0  0  0  0  0
   -1.9426    0.9274   -0.8598 H   0  0  0  0  0  0  0  0  0  0  0  0
   -2.7202   -0.6223   -0.2196 H   0  0  0  0  0  0  0  0  0  0  0  0
   -0.6655   -1.2187    0.9084 H   0  0  0  0  0  0  0  0  0  0  0  0
    0.7920    0.8254    1.3254 H   0  0  0  0  0  0  0  0  0  0  0  0
    0.3630    1.4389   -0.2631 H   0  0  0  0  0  0  0  0  0  0  0  0
    1.7159   -0.2474   -0.2919 C   0  0  0  0  0  0  0  0  0  0  0  0
    2.6252    0.3554   -0.2766 H   0  0  0  0  0  0  0  0  0  0  0  0
    1.5106   -0.5295   -1.3260 H   0  0  0  0  0  0  0  0  0  0  0  0
    1.9114   -1.1628    0.2708 H   0  0  0  0  0  0  0  0  0  0  0  0
  1  5  1  0  0  0  0
  1  2  2  0  0  0  0
  2  6  1  0  0  0  0
  3  2  1  0  0  0  0
  3  7  1  0  0  0  0
  4  1  1  0  0  0  0
  8  3  1  0  0  0  0
  9 10  1  0  0  0  0
  9 12  1  0  0  0  0
  9  3  1  0  0  0  0
 11  9  1  0  0  0  0
M  END
