
 OpenBabel05142418403D

 13 13  0  0  0  0  0  0  0  0999 V2000
    0.6627    1.0695   -0.0471 C   0  0  0  0  0  0  0  0  0  0  0  0
   -0.6627    1.0695   -0.0471 C   0  0  0  0  0  0  0  0  0  0  0  0
    1.2274   -0.3177    0.1039 C   0  0  0  0  0  0  0  0  0  0  0  0
   -1.2274   -0.3177    0.1039 C   0  0  0  0  0  0  0  0  0  0  0  0
    0.0000   -1.2194   -0.1365 C   0  0  0  0  0  0  0  0  0  0  0  0
    1.2831    1.9547   -0.1050 H   0  0  0  0  0  0  0  0  0  0  0  0
   -1.2831    1.9547   -0.1050 H   0  0  0  0  0  0  0  0  0  0  0  0
    2.0399   -0.5241   -0.5957 H   0  0  0  0  0  0  0  0  0  0  0  0
   -2.0399   -0.5241   -0.5957 H   0  0  0  0  0  0  0  0  0  0  0  0
    1.6404   -0.4505    1.1100 H   0  0  0  0  0  0  0  0  0  0  0  0
   -1.6404   -0.4505    1.1100 H   0  0  0  0  0  0  0  0  0  0  0  0
    0.0000   -1.5563   -1.1747 H   0  0  0  0  0  0  0  0  0  0  0  0
    0.0000   -2.1085    0.4935 H   0  0  0  0  0  0  0  0  0  0  0  0
  1  2  2  0  0  0  0
  1  3  1  0  0  0  0
  2  4  1  0  0  0  0
  3 10  1  0  0  0  0
  4 11  1  0  0  0  0
  5  3  1  0  0  0  0
  5  4  1  0  0  0  0
  5 13  1  0  0  0  0
  6  1  1  0  0  0  0
  7  2  1  0  0  0  0
  8  3  1  0  0  0  0
  9  4  1  0  0  0  0
 12  5  1  0  0  0  0
M  END
